acc/ieee4node/balanced_stepdown_D-D.glm
// $id$
// Copyright (C) 2008 Battelle Memorial Institute
// Modified by Hui Lin 2022 Feb 7
//   Trying to use player to change load and collect power flow results

clock {
	//timestamp '2000-01-01 0:00:00';
	timezone EST+5EDT;
	starttime '2000-01-01 0:00:00';
	//stoptime '2000-01-01 0:11:00';
	stoptime '2000-01-07 22:41:00'; //adding one based on sample_size
}

module powerflow;

//module powerflow {
//     solver_method NR;
//     NR_iteration_limit 50;
//};


module tape;

// #include "schedules.glm";


object overhead_line_conductor:100 {
	geometric_mean_radius 0.0244;
	resistance 0.306;
}

object overhead_line_conductor:101 {
	geometric_mean_radius 0.00814;
	resistance 0.592;
}

object line_spacing:200 {
	distance_AB 2.5;
	distance_BC 4.5;
	distance_AC 7.0;
	distance_AN 5.656854;
	distance_BN 4.272002;
	distance_CN 5.0;	
}

object line_configuration:300 {
	conductor_A overhead_line_conductor:100;
	conductor_B overhead_line_conductor:100;
	conductor_C overhead_line_conductor:100;
	conductor_N overhead_line_conductor:101;	
	spacing line_spacing:200;
}

object transformer_configuration:400 {
	connect_type DELTA_DELTA;
	install_type PADMOUNT;
	power_rating 6000;
	primary_voltage 12470;
	secondary_voltage 4160;
	resistance 0.01;
	reactance 0.06;
}

object node:1 {
        name node1;
	phases "ABCD";
	voltage_A +7199.558+0.000j;
	voltage_B -3599.779-6235.000j;
	voltage_C -3599.779+6235.000j;
	nominal_voltage 7200;
        //bustype SWING;
}

object overhead_line:12 {
	phases "ABCD";
	from node:1;
	to node:2;
	length 2000;
	configuration line_configuration:300;
}

object node:2 {
	phases "ABCD";
        name node2;
	voltage_A +7199.558+0.000j;
	voltage_B -3599.779-6235.000j;
	voltage_C -3599.779+6235.000j;
	nominal_voltage 7200;
}

object transformer:23 {
	phases "ABCD";
	from node:2;
	to node:3;
	configuration transformer_configuration:400;
}

object node:3 {
        name node3;
	phases "ABCD";
	voltage_A +2401.777+0.000j;
	voltage_B -1200.889-2080.000j;
	voltage_C -1200.889+2080.000j;
	nominal_voltage 2400;
}

object overhead_line:34 {
	phases "ABCD";
	from node:3;
	to load:4;
	length 2500;
	configuration line_configuration:300;
}


object load:4 {
        name node4;
	phases "ABCD";
	voltage_A +2401.777+0.000j;
	voltage_B -1200.889-2080.000j;
	voltage_C -1200.889+2080.000j;
	// constant_power_A +1800000.000+871779.789j;
        //constant_power_B +1800000.000+871779.789j;
	//constant_power_C +1800000.000+871779.789j;
	// constant_power_A_real load_schedule_1*1800000.000;
	// constant_power_A_reac load_schedule_1*871779.789;
	// constant_power_B_real load_schedule_1*1800000.000;
	// constant_power_B_reac load_schedule_1*871779.789;
	// constant_power_C_real load_schedule_1*1800000.000;
	// constant_power_C_reac load_schedule_1*871779.789;
        object player {
            property constant_power_A;
            //file sample.player;    
            file load.player;    
            loop 1;
        };
        object player {
            property constant_power_B;
            file sample.player;    
            //file sample2.player;    
            loop 1;
        };
        object player {
            property constant_power_C;
            file sample.player;    
            //file sample2.player;    
            loop 1;
        };

	maximum_voltage_error 0.001;
	nominal_voltage 2400;
}


//object recorder {
//    name ol34_recorder;
//    parent overhead_line:34;
//    file ol32_meter.csv;
//    interval 60;
//    property power_losses_A;
//};

object multi_recorder {
    name node_voltages;
    interval 60;
    property node1:voltage_A, node1:voltage_B, node1:voltage_C, node2:voltage_A, node2:voltage_B, node2:voltage_C, node3:voltage_A, node3:voltage_B, node3:voltage_C, node4:voltage_A, node4:voltage_B, node4:voltage_C;
    //property node1:voltage_A, node2:voltage_A, node3:voltage_A, node4:voltage_A;
    file node_voltages.csv;
    //file node_voltages2.csv;
}
